Version 4
SHEET 1 880 680
WIRE 352 64 352 48
WIRE 464 160 464 128
WIRE 96 176 0 176
WIRE 224 176 176 176
WIRE 432 176 224 176
WIRE 224 192 224 176
WIRE 624 192 496 192
WIRE 0 208 0 176
WIRE 352 208 352 144
WIRE 432 208 352 208
WIRE -208 224 -208 192
WIRE 352 224 352 208
WIRE 464 256 464 224
WIRE 224 288 224 256
WIRE -208 336 -208 304
WIRE 0 336 0 288
WIRE 352 336 352 304
FLAG 224 288 0
FLAG 352 336 0
FLAG -208 336 0
FLAG -208 192 Vcc
IOPIN -208 192 BiDir
FLAG 464 256 Vcc
IOPIN 464 256 BiDir
FLAG 464 128 0
FLAG 0 336 0
FLAG 352 48 Vcc
IOPIN 352 48 BiDir
SYMBOL res 192 160 R90
WINDOW 0 0 56 VBottom 2
WINDOW 3 32 56 VTop 2
SYMATTR InstName R1
SYMATTR Value 220k
SYMBOL cap 208 192 R0
SYMATTR InstName C1
SYMATTR Value {C}
SYMBOL res 336 48 R0
SYMATTR InstName R2
SYMATTR Value 22k
SYMBOL res 336 208 R0
SYMATTR InstName R3
SYMATTR Value 100k
SYMBOL voltage -208 208 R0
WINDOW 123 0 0 Left 2
WINDOW 39 0 0 Left 2
SYMATTR InstName V1
SYMATTR Value 3
SYMBOL voltage 0 192 R0
WINDOW 3 -55 -119 VRight 2
WINDOW 123 0 0 Left 2
WINDOW 39 0 0 Left 2
SYMATTR InstName V2
SYMATTR Value PULSE(0 3 0 1n 1n 7.5m 15m 100)
SYMBOL Comparators\\LT1017 464 192 M180
SYMATTR InstName U1
TEXT -280 456 Left 2 !.tran 100m
TEXT 208 440 Left 2 !.step param C 50p 1n 200p
